tests/test_opendss/.dump/Transformers.dss
new XfmrCode.Transformer-1 Phases=3 Windings=2 Conns=(wye, wye) kVs=[21.59804, 0.6928000000000001] kVAs=[56.0, 56.0] Taps=[1.0, 1.0] %Rs=[1.0, 1.0] %LoadLoss=1.0 %NoLoadLoss=0.1 X12=2.3 Wdg=1 MaxTap=1.1 MinTap=0.9 NumTaps=32 Wdg=2 MaxTap=1.1 MinTap=0.9 NumTaps=32
new Transformer.substation_xfmr Phases=3 Windings=2 Buses=(src_bus.1.2.3, bus_0.1.2.3) XfmrCode=Transformer-1
new XfmrCode.split_phase_xfmr_equipment Phases=1 Windings=3 Conns=(wye, wye, wye) kVs=[0.4, 0.12, 0.12] kVAs=[50.0, 50.0, 50.0] Taps=[1.0, 1.0, 1.0] %Rs=[1.0, 1.0, 1.0] %LoadLoss=1.0 %NoLoadLoss=0.1 X12=2.3 X13=2.3 X23=2.3 Wdg=1 MaxTap=1.1 MinTap=0.9 NumTaps=32 Wdg=2 MaxTap=1.1 MinTap=0.9 NumTaps=32 Wdg=3 MaxTap=1.1 MinTap=0.9 NumTaps=32
new Transformer.split_phase_xfmr Phases=2 Windings=3 Buses=(bus_9.1.2, split_phase_bus_0.1.0, split_phase_bus_0.0.2) XfmrCode=split_phase_xfmr_equipment
