tests/test_opendss/.dump/Lines.dss
new Line.line_bus_0_bus_1 Bus1=bus_0.1.2.3 Bus2=bus_1.1.2.3 LineCode=matrix-impedance-branch-1 Length=130.2 Phases=3 Units=m
new Line.line_bus_1_bus_2 Bus1=bus_1.1.2.3 Bus2=bus_2.1.2.3 LineCode=matrix-impedance-branch-1 Length=130.2 Phases=3 Units=m
new Line.line_bus_2_bus_3 Bus1=bus_2.1.2.3 Bus2=bus_3.1.2.3 LineCode=matrix-impedance-branch-1 Length=130.2 Phases=3 Units=m
new Line.line_bus_3_bus_4 Bus1=bus_3.1.2.3 Bus2=bus_4.1.2.3 LineCode=matrix-impedance-branch-1 Length=130.2 Phases=3 Units=m
new Line.line_bus_4_bus_5 Bus1=bus_4.1.2.3 Bus2=bus_5.1.2.3 LineCode=matrix-impedance-branch-1 Length=130.2 Phases=3 Units=m
new Line.line_bus_5_bus_6 Bus1=bus_5.1.2.3 Bus2=bus_6.1.2.3 LineCode=matrix-impedance-branch-1 Length=130.2 Phases=3 Units=m
new Line.line_bus_6_bus_7 Bus1=bus_6.1.2.3 Bus2=bus_7.1.2.3 LineCode=matrix-impedance-branch-1 Length=130.2 Phases=3 Units=m
new Line.line_bus_7_bus_8 Bus1=bus_7.1.2.3 Bus2=bus_8.1.2.3 LineCode=matrix-impedance-branch-1 Length=130.2 Phases=3 Units=m
new Line.line_bus_8_bus_9 Bus1=bus_8.1.2.3 Bus2=bus_9.1.2.3 LineCode=matrix-impedance-branch-1 Length=130.2 Phases=3 Units=m
new Line.DistBranch_split_phase_bus_0_split_phase_bus_1 Bus1=split_phase_bus_0.1.2 Bus2=split_phase_bus_1.1.2 LineCode=matrix-impedance-branch-1 Length=130.2 Phases=2 Units=m
new Line.DistBranch_split_phase_bus_1_split_phase_bus_2 Bus1=split_phase_bus_1.1.2 Bus2=split_phase_bus_2.1.2 LineCode=matrix-impedance-branch-1 Length=130.2 Phases=2 Units=m
new Line.DistBranch_split_phase_bus_2_split_phase_bus_3 Bus1=split_phase_bus_2.1.2 Bus2=split_phase_bus_3.1.2 LineCode=matrix-impedance-branch-1 Length=130.2 Phases=2 Units=m
new Line.DistBranch_split_phase_bus_3_split_phase_bus_4 Bus1=split_phase_bus_3.1.2 Bus2=split_phase_bus_4.1.2 LineCode=matrix-impedance-branch-1 Length=130.2 Phases=2 Units=m
new Line.DistBranch_split_phase_bus_4_split_phase_bus_5 Bus1=split_phase_bus_4.1.2 Bus2=split_phase_bus_5.1.2 LineCode=matrix-impedance-branch-1 Length=130.2 Phases=2 Units=m
new Line.DistBranch_split_phase_bus_5_split_phase_bus_6 Bus1=split_phase_bus_5.1.2 Bus2=split_phase_bus_6.1.2 LineCode=matrix-impedance-branch-1 Length=130.2 Phases=2 Units=m
new Line.DistBranch_split_phase_bus_6_split_phase_bus_7 Bus1=split_phase_bus_6.1.2 Bus2=split_phase_bus_7.1.2 LineCode=matrix-impedance-branch-1 Length=130.2 Phases=2 Units=m
new Line.DistBranch_split_phase_bus_7_split_phase_bus_8 Bus1=split_phase_bus_7.1.2 Bus2=split_phase_bus_8.1.2 LineCode=matrix-impedance-branch-1 Length=130.2 Phases=2 Units=m
new Line.DistBranch_split_phase_bus_8_split_phase_bus_9 Bus1=split_phase_bus_8.1.2 Bus2=split_phase_bus_9.1.2 LineCode=matrix-impedance-branch-1 Length=130.2 Phases=2 Units=m
